4
 energy: -3.019358313003 gnorm: 0.000731277033 xtb: 6.6.0 (8843059)
 C                  0.00000000    0.00000000    0.00000000
 H                  0.00000000    1.08023500    0.00000000
 H                 -0.93551100   -0.54011700    0.00000000
 H                  0.93551100   -0.54011700    0.00000000
